Version 4
SHEET 1 1196 680
WIRE 96 -160 -288 -160
WIRE 448 -160 96 -160
WIRE 848 -160 448 -160
WIRE 128 -96 48 -96
WIRE 48 -80 48 -96
WIRE 128 -80 128 -96
WIRE -288 -64 -288 -160
WIRE -16 0 -64 0
WIRE 128 0 64 0
WIRE 144 0 128 0
WIRE 336 32 112 32
WIRE -64 48 -64 0
WIRE 848 64 848 -160
WIRE 144 112 144 0
WIRE 336 112 272 112
WIRE 496 112 336 112
WIRE 784 112 624 112
WIRE 112 144 112 32
WIRE 112 144 80 144
WIRE 144 144 112 144
WIRE 496 144 416 144
WIRE -16 176 -64 176
WIRE 80 176 80 144
WIRE 80 176 64 176
WIRE 96 176 96 -160
WIRE 144 176 96 176
WIRE 448 176 448 -160
WIRE 496 176 448 176
WIRE -64 192 -64 176
WIRE 144 208 96 208
WIRE 496 208 448 208
WIRE 848 256 848 160
WIRE 848 256 832 256
WIRE 912 256 848 256
WIRE 1040 256 912 256
WIRE 96 272 96 208
WIRE 448 272 448 208
WIRE 912 272 912 256
WIRE 416 304 416 144
WIRE 832 304 832 256
WIRE 832 304 416 304
WIRE 912 368 912 352
FLAG -64 128 0
FLAG -64 272 0
FLAG -288 16 0
FLAG 96 272 0
FLAG 912 368 0
FLAG 48 -80 0
FLAG 1040 320 0
FLAG 448 272 0
SYMBOL AutoGenerated\\AD8099 208 160 R0
SYMATTR InstName U1
SYMBOL voltage -64 32 R0
WINDOW 123 0 0 Left 0
WINDOW 39 0 0 Left 0
SYMATTR InstName V1
SYMATTR Value 3.3
SYMBOL voltage -64 176 R0
WINDOW 123 0 0 Left 0
WINDOW 39 0 0 Left 0
SYMATTR InstName V2
SYMATTR Value PULSE(0 3.3 0.1 0.01 0.01 0.01 0 50)
SYMBOL voltage -288 -80 R0
WINDOW 123 0 0 Left 0
WINDOW 39 0 0 Left 0
SYMATTR InstName V3
SYMATTR Value 7
SYMBOL npn 784 64 R0
SYMATTR InstName Q1
SYMATTR Value 2SCR293P
SYMBOL LED 1024 256 R0
WINDOW 3 31 54 Left 2
SYMATTR InstName D1
SYMATTR Value LXK2-PW14
SYMBOL res 80 -16 R90
WINDOW 0 0 56 VBottom 2
WINDOW 3 32 56 VTop 2
SYMATTR InstName R1
SYMATTR Value 100
SYMBOL res 80 160 R90
WINDOW 0 0 56 VBottom 2
WINDOW 3 32 56 VTop 2
SYMATTR InstName R2
SYMATTR Value 100
SYMBOL res 352 128 R180
WINDOW 0 36 76 Left 2
WINDOW 3 36 40 Left 2
SYMATTR InstName R3
SYMATTR Value 200
SYMBOL res 144 16 R180
WINDOW 0 36 76 Left 2
WINDOW 3 36 40 Left 2
SYMATTR InstName R4
SYMATTR Value 100
SYMBOL AutoGenerated\\AD8099 560 160 R0
SYMATTR InstName U2
SYMBOL res 896 256 R0
SYMATTR InstName R5
SYMATTR Value 5
TEXT -98 296 Left 2 !.tran 1
